Version 4
SHEET 1 1712 680
WIRE 160 96 160 0
WIRE 160 96 16 96
WIRE 240 96 240 0
WIRE 240 96 224 96
WIRE 288 96 240 96
WIRE 416 96 368 96
WIRE 448 96 416 96
WIRE 576 96 512 96
WIRE 656 96 576 96
WIRE 672 96 656 96
WIRE 1008 96 960 96
WIRE 1088 96 1008 96
WIRE 1184 96 1088 96
WIRE 1328 96 1184 96
WIRE 16 112 16 96
WIRE 416 128 416 96
WIRE 576 128 576 96
WIRE 1088 176 1088 160
WIRE 1184 176 1088 176
WIRE 1328 176 1328 160
WIRE 1328 176 1184 176
WIRE 656 192 656 96
WIRE 672 192 656 192
WIRE 1008 192 1008 160
WIRE 1008 192 960 192
WIRE 16 240 16 192
WIRE 416 240 416 192
WIRE 416 240 16 240
WIRE 576 240 576 192
WIRE 576 240 416 240
WIRE 16 256 16 240
WIRE 576 288 576 240
WIRE 816 288 816 256
WIRE 816 288 576 288
WIRE 1088 288 1088 176
WIRE 1088 288 816 288
FLAG 16 256 0
SYMBOL voltage 16 96 R0
WINDOW 123 0 0 Left 2
WINDOW 39 0 0 Left 2
SYMATTR InstName V1
SYMATTR Value SINE(0 230 50)
SYMBOL cap 224 80 R90
WINDOW 0 0 32 VBottom 2
WINDOW 3 32 32 VTop 2
SYMATTR InstName C1
SYMATTR Value 470n
SYMBOL res 256 -16 R90
WINDOW 0 0 56 VBottom 2
WINDOW 3 32 56 VTop 2
SYMATTR InstName R1
SYMATTR Value 1000k
SYMBOL res 384 80 R90
WINDOW 0 0 56 VBottom 2
WINDOW 3 32 56 VTop 2
SYMATTR InstName R2
SYMATTR Value 400
SYMBOL zener 432 192 R180
WINDOW 0 24 64 Left 2
WINDOW 3 24 0 Left 2
SYMATTR InstName D2
SYMATTR Value BZX84C6V2L
SYMATTR Description Diode
SYMATTR Type diode
SYMBOL diode 448 112 R270
WINDOW 0 32 32 VTop 2
WINDOW 3 0 32 VBottom 2
SYMATTR InstName D1
SYMATTR Value 1N4148
SYMBOL PowerProducts\\LT1761-3.3 816 144 R0
SYMATTR InstName U1
SYMBOL cap 560 128 R0
SYMATTR InstName C2
SYMATTR Value 100µ
SYMATTR SpiceLine V=16 Rser=0.1
SYMBOL cap 992 96 R0
SYMATTR InstName C3
SYMATTR Value 10n
SYMBOL cap 1072 96 R0
SYMATTR InstName C4
SYMATTR Value 10µ
SYMBOL load2 1184 96 R0
WINDOW 123 0 0 Left 2
WINDOW 39 0 0 Left 2
SYMATTR InstName I1
SYMATTR Value PULSE(2m 42m 100m 10u 10u 5m 50m 20)
SYMBOL diode 1344 160 R180
WINDOW 0 24 64 Left 2
WINDOW 3 24 0 Left 2
SYMATTR InstName D3
SYMATTR Value 1N4148
TEXT -16 296 Left 2 !.tran 1s
